
Note: No compatibility mode selected!


Circuit: * dshot 600 signal integrity — fc pin → mcu input via pcb trace

Note: No ".plot", ".print", or ".fourier" lines; no simulations run
