Header
  Mesh DB "." "ch1_cluster"
End
Simulation
  Coordinate System = "Cartesian 3D"
  Simulation Type = "Steady State"
  Steady State Max Iterations = 50
  Output Intervals = 1
End
Body 1
  Equation = 1
  Material = 1
  Body Force = 1
End
Equation 1
  Active Solvers(1) = 1
End
Solver 1
  Equation = "Heat Equation"
  Variable = "Temperature"
  Linear System Solver = "Iterative"
  Linear System Iterative Method = "BiCGStab"
  Linear System Max Iterations = 1000
End
Material 1
  Density = 2500.0
  Heat Conductivity = 200.0
  Heat Capacity = 800.0
End
Body Force 1
  Heat Source = Variable Coordinate 1
    Real MATC "tx(0)*1000"
End
Boundary Condition 1
  Target Boundaries(1) = 1
  Heat Transfer Coefficient = 1500.0
  External Temperature = 333.15
End
